<?xml version="1.0" encoding="UTF-8"?>

<!-- generated on 2025-04-24 19:21:51 by Eclipse SUMO netedit Version 1.21.0
<neteditConfiguration xmlns:xsi="http://www.w3.org/2001/XMLSchema-instance" xsi:noNamespaceSchemaLocation="http://sumo.dlr.de/xsd/neteditConfiguration.xsd">

    <input>
        <sumo-net-file value="D:\Projects_\4_22\env\intersection\map_hz.net.xml"/>
    </input>

    <output>
        <output-file value="D:\Projects_\4_22\env\intersection\map_hz.net.xml"/>
    </output>

    <processing>
        <geometry.min-radius.fix.railways value="false"/>
        <geometry.max-grade.fix value="false"/>
        <offset.disable-normalization value="true"/>
        <lefthand value="0"/>
    </processing>

    <junctions>
        <no-internal-links value="true"/>
        <no-turnarounds value="true"/>
        <junctions.corner-detail value="5"/>
        <junctions.limit-turn-speed value="5.50"/>
        <rectangular-lane-cut value="0"/>
    </junctions>

    <pedestrian>
        <walkingareas value="0"/>
    </pedestrian>

</neteditConfiguration>
-->

<net version="1.20" junctionCornerDetail="5" limitTurnSpeed="5.50" xmlns:xsi="http://www.w3.org/2001/XMLSchema-instance" xsi:noNamespaceSchemaLocation="http://sumo.dlr.de/xsd/net_file.xsd">

    <location netOffset="-219832.67,-3352604.85" convBoundary="3.71,0.00,4215.13,3327.44" origBoundary="119.994735,30.265612,120.157813,30.311854" projParameter="+proj=utm +zone=51 +ellps=WGS84 +datum=WGS84 +units=m +no_defs"/>

    <type id="highway.primary" priority="12" numLanes="2" speed="27.78" disallow="tram rail_urban rail rail_electric rail_fast ship container cable_car subway aircraft wheelchair scooter drone" oneway="0"/>
    <type id="highway.secondary" priority="11" numLanes="1" speed="27.78" disallow="tram rail_urban rail rail_electric rail_fast ship container cable_car subway aircraft wheelchair scooter drone" oneway="0"/>

    <edge id="road_0_1_0" from="intersection_0_1" to="intersection_1_1" priority="11" type="highway.secondary" spreadType="center" shape="3.71,529.56 167.49,547.69 188.64,552.03 442.20,555.19 501.66,556.41 798.15,561.56">
        <lane id="road_0_1_0_0" index="0" disallow="tram rail_urban rail rail_electric rail_fast ship container cable_car subway aircraft wheelchair scooter drone" speed="27.78" length="806.63" shape="4.75,526.46 167.99,544.53 188.98,548.83 442.25,551.99 501.72,553.21 788.84,558.20"/>
        <lane id="road_0_1_0_1" index="1" disallow="tram rail_urban rail rail_electric rail_fast ship container cable_car subway aircraft wheelchair scooter drone" speed="27.78" length="806.63" shape="4.40,529.64 167.49,547.69 188.64,552.03 442.20,555.19 501.66,556.41 788.78,561.40"/>
        <lane id="road_0_1_0_2" index="2" disallow="tram rail_urban rail rail_electric rail_fast ship container cable_car subway aircraft wheelchair scooter drone" speed="27.78" length="806.63" shape="4.04,532.82 166.99,550.85 188.30,555.23 442.15,558.39 501.60,559.61 788.73,564.60"/>
    </edge>
    <edge id="road_0_2_0" from="intersection_0_2" to="intersection_1_2" priority="11" type="highway.secondary" spreadType="center" shape="67.13,1162.82 161.56,1167.41 400.67,1183.04 497.52,1188.85 710.96,1201.64">
        <lane id="road_0_2_0_0" index="0" disallow="tram rail_urban rail rail_electric rail_fast ship container cable_car subway aircraft wheelchair scooter drone" speed="27.78" length="658.97" shape="66.38,1159.58 161.74,1164.22 400.87,1179.85 497.71,1185.66 702.23,1197.91"/>
        <lane id="road_0_2_0_1" index="1" disallow="tram rail_urban rail rail_electric rail_fast ship container cable_car subway aircraft wheelchair scooter drone" speed="27.78" length="658.97" shape="66.23,1162.78 161.56,1167.41 400.67,1183.04 497.52,1188.85 702.03,1201.10"/>
        <lane id="road_0_2_0_2" index="2" disallow="tram rail_urban rail rail_electric rail_fast ship container cable_car subway aircraft wheelchair scooter drone" speed="27.78" length="658.97" shape="66.07,1165.97 161.38,1170.60 400.47,1186.23 497.33,1192.04 701.82,1204.30"/>
    </edge>
    <edge id="road_0_3_0" from="intersection_0_3" to="intersection_1_3" priority="12" type="highway.primary" spreadType="center" shape="35.59,1802.21 142.24,1791.27 417.35,1763.08 606.68,1746.44 632.62,1745.37">
        <lane id="road_0_3_0_0" index="0" disallow="tram rail_urban rail rail_electric rail_fast ship container cable_car subway aircraft wheelchair scooter drone" speed="27.78" length="610.60" shape="35.01,1799.05 141.91,1788.09 417.05,1759.89 606.47,1743.25 620.10,1742.68"/>
        <lane id="road_0_3_0_1" index="1" disallow="tram rail_urban rail rail_electric rail_fast ship container cable_car subway aircraft wheelchair scooter drone" speed="27.78" length="610.60" shape="35.34,1802.24 142.24,1791.27 417.35,1763.08 606.68,1746.44 620.34,1745.88"/>
        <lane id="road_0_3_0_2" index="2" disallow="tram rail_urban rail rail_electric rail_fast ship container cable_car subway aircraft wheelchair scooter drone" speed="27.78" length="610.60" shape="35.67,1805.42 142.57,1794.45 417.65,1766.27 606.89,1749.63 620.58,1749.07"/>
    </edge>
    <edge id="road_0_4_0" from="intersection_0_4" to="intersection_1_4" priority="12" type="highway.primary" spreadType="center" shape="79.27,2695.58 140.21,2690.53 178.50,2689.05 205.49,2688.77 232.98,2688.47 283.77,2679.47 410.31,2675.20 467.56,2673.97 582.21,2679.28">
        <lane id="road_0_4_0_0" index="0" disallow="tram rail_urban rail rail_electric rail_fast ship container cable_car subway aircraft wheelchair scooter drone" speed="27.78" length="524.30" shape="79.81,2692.32 140.02,2687.34 178.42,2685.85 205.46,2685.57 232.68,2685.27 283.44,2676.28 410.22,2672.00 467.60,2670.77 571.86,2675.60"/>
        <lane id="road_0_4_0_1" index="1" disallow="tram rail_urban rail rail_electric rail_fast ship container cable_car subway aircraft wheelchair scooter drone" speed="27.78" length="524.30" shape="80.08,2695.51 140.21,2690.53 178.50,2689.05 205.49,2688.77 232.98,2688.47 283.77,2679.47 410.31,2675.20 467.56,2673.97 572.04,2678.81"/>
        <lane id="road_0_4_0_2" index="2" disallow="tram rail_urban rail rail_electric rail_fast ship container cable_car subway aircraft wheelchair scooter drone" speed="27.78" length="524.30" shape="80.34,2698.70 140.40,2693.72 178.58,2692.25 205.52,2691.97 233.28,2691.67 284.10,2682.66 410.40,2678.40 467.52,2677.17 572.22,2682.02"/>
    </edge>
    <edge id="road_1_0_1" from="intersection_1_0" to="intersection_1_1" priority="12" type="highway.primary" spreadType="center" shape="864.37,0.50 859.02,167.56 858.58,181.07 849.12,303.12 840.14,362.95 810.12,562.65">
        <lane id="road_1_0_1_0" index="0" disallow="tram rail_urban rail rail_electric rail_fast ship container cable_car subway aircraft wheelchair scooter drone" speed="27.78" length="577.09" shape="867.57,0.51 862.22,167.66 861.78,181.25 852.30,303.48 843.30,363.43 814.70,553.70"/>
        <lane id="road_1_0_1_1" index="1" disallow="tram rail_urban rail rail_electric rail_fast ship container cable_car subway aircraft wheelchair scooter drone" speed="27.78" length="577.09" shape="864.37,0.41 859.02,167.56 858.58,181.07 849.12,303.12 840.14,362.95 811.54,553.22"/>
        <lane id="road_1_0_1_2" index="2" disallow="tram rail_urban rail rail_electric rail_fast ship container cable_car subway aircraft wheelchair scooter drone" speed="27.78" length="577.09" shape="861.17,0.31 855.82,167.46 855.38,180.89 845.94,302.76 836.98,362.47 808.37,552.74"/>
    </edge>
    <edge id="road_1_1_0" from="intersection_1_1" to="intersection_2_1" priority="11" type="highway.secondary" spreadType="center" shape="810.12,562.65 1079.11,565.05 1260.56,569.03 1282.61,569.39 1481.91,571.38 1668.11,572.31 1706.75,573.51 1788.22,574.20">
        <lane id="road_1_1_0_0" index="0" disallow="tram rail_urban rail rail_electric rail_fast ship container cable_car subway aircraft wheelchair scooter drone" speed="27.78" length="985.61" shape="819.67,559.54 1079.16,561.85 1260.62,565.83 1282.65,566.19 1481.93,568.18 1668.17,569.11 1706.81,570.31 1770.17,570.85"/>
        <lane id="road_1_1_0_1" index="1" disallow="tram rail_urban rail rail_electric rail_fast ship container cable_car subway aircraft wheelchair scooter drone" speed="27.78" length="985.61" shape="819.65,562.73 1079.11,565.05 1260.56,569.03 1282.61,569.39 1481.91,571.38 1668.11,572.31 1706.75,573.51 1770.09,574.05"/>
        <lane id="road_1_1_0_2" index="2" disallow="tram rail_urban rail rail_electric rail_fast ship container cable_car subway aircraft wheelchair scooter drone" speed="27.78" length="985.61" shape="819.62,565.93 1079.06,568.25 1260.50,572.23 1282.57,572.59 1481.89,574.58 1668.05,575.51 1706.69,576.71 1770.01,577.25"/>
    </edge>
    <edge id="road_1_1_1" from="intersection_1_1" to="intersection_1_2" priority="12" type="highway.primary" spreadType="center" shape="808.95,571.56 791.00,703.97 723.43,1202.17">
        <lane id="road_1_1_1_0" index="0" disallow="tram rail_urban rail rail_electric rail_fast ship container cable_car subway aircraft wheelchair scooter drone" speed="27.78" length="649.17" shape="810.61,583.10 794.17,704.40 727.86,1193.30"/>
        <lane id="road_1_1_1_1" index="1" disallow="tram rail_urban rail rail_electric rail_fast ship container cable_car subway aircraft wheelchair scooter drone" speed="27.78" length="649.17" shape="807.44,582.67 791.00,703.97 724.69,1192.90"/>
        <lane id="road_1_1_1_2" index="2" disallow="tram rail_urban rail rail_electric rail_fast ship container cable_car subway aircraft wheelchair scooter drone" speed="27.78" length="649.17" shape="804.27,582.24 787.83,703.54 721.51,1192.50"/>
    </edge>
    <edge id="road_1_1_2" from="intersection_1_1" to="intersection_0_1" priority="11" type="highway.secondary" spreadType="center" shape="797.41,571.89 544.26,567.77 453.93,566.57 186.04,563.01 166.77,558.77 4.03,539.19">
        <lane id="road_1_1_2_0" index="0" disallow="tram rail_urban rail rail_electric rail_fast ship container cable_car subway aircraft wheelchair scooter drone" speed="27.78" length="807.50" shape="788.56,574.95 544.21,570.97 453.89,569.77 185.67,566.21 166.23,561.93 2.92,542.28"/>
        <lane id="road_1_1_2_1" index="1" disallow="tram rail_urban rail rail_electric rail_fast ship container cable_car subway aircraft wheelchair scooter drone" speed="27.78" length="807.50" shape="788.61,571.75 544.26,567.77 453.93,566.57 186.04,563.01 166.77,558.77 3.30,539.10"/>
        <lane id="road_1_1_2_2" index="2" disallow="tram rail_urban rail rail_electric rail_fast ship container cable_car subway aircraft wheelchair scooter drone" speed="27.78" length="807.50" shape="788.67,568.55 544.31,564.57 453.97,563.37 186.41,559.81 167.31,555.61 3.68,535.93"/>
    </edge>
    <edge id="road_1_1_3" from="intersection_1_1" to="intersection_1_0" priority="12" type="highway.primary" spreadType="center" shape="798.15,562.56 829.11,359.73 833.55,321.76 836.56,295.98 843.30,240.43 848.02,181.81 854.39,0.00">
        <lane id="road_1_1_3_0" index="0" disallow="tram rail_urban rail rail_electric rail_fast ship container cable_car subway aircraft wheelchair scooter drone" speed="27.78" length="575.98" shape="796.68,550.95 825.94,359.30 830.37,321.39 833.38,295.60 840.12,240.11 844.82,181.63 851.19,-0.11"/>
        <lane id="road_1_1_3_1" index="1" disallow="tram rail_urban rail rail_electric rail_fast ship container cable_car subway aircraft wheelchair scooter drone" speed="27.78" length="575.98" shape="799.85,551.44 829.11,359.73 833.55,321.76 836.56,295.98 843.30,240.43 848.02,181.81 854.39,0.00"/>
        <lane id="road_1_1_3_2" index="2" disallow="tram rail_urban rail rail_electric rail_fast ship container cable_car subway aircraft wheelchair scooter drone" speed="27.78" length="575.98" shape="803.01,551.92 832.28,360.16 836.73,322.13 839.74,296.36 846.48,240.75 851.22,181.99 857.59,0.11"/>
    </edge>
    <edge id="road_1_2_0" from="intersection_1_2" to="intersection_2_2" priority="11" type="highway.secondary" spreadType="center" shape="723.43,1202.17 931.20,1205.59 1220.46,1209.14 1315.41,1210.21 1425.44,1211.44 1537.30,1211.06 1580.82,1209.80 1639.27,1213.64">
        <lane id="road_1_2_0_0" index="0" disallow="tram rail_urban rail rail_electric rail_fast ship container cable_car subway aircraft wheelchair scooter drone" speed="27.78" length="924.56" shape="732.89,1199.13 931.25,1202.39 1220.50,1205.94 1315.45,1207.01 1425.45,1208.24 1537.25,1207.86 1580.88,1206.60 1621.21,1209.25"/>
        <lane id="road_1_2_0_1" index="1" disallow="tram rail_urban rail rail_electric rail_fast ship container cable_car subway aircraft wheelchair scooter drone" speed="27.78" length="924.56" shape="732.83,1202.32 931.20,1205.59 1220.46,1209.14 1315.41,1210.21 1425.44,1211.44 1537.30,1211.06 1580.82,1209.80 1621.36,1212.46"/>
        <lane id="road_1_2_0_2" index="2" disallow="tram rail_urban rail rail_electric rail_fast ship container cable_car subway aircraft wheelchair scooter drone" speed="27.78" length="924.56" shape="732.78,1205.52 931.15,1208.79 1220.42,1212.34 1315.37,1213.41 1425.43,1214.64 1537.35,1214.26 1580.76,1213.00 1621.52,1215.68"/>
    </edge>
    <edge id="road_1_2_1" from="intersection_1_2" to="intersection_1_3" priority="12" type="highway.primary" spreadType="center" shape="721.00,1208.68 702.80,1330.28 690.99,1404.57 677.85,1488.21 658.05,1635.27 654.24,1663.67 644.33,1730.32 641.57,1745.42">
        <lane id="road_1_2_1_0" index="0" disallow="tram rail_urban rail rail_electric rail_fast ship container cable_car subway aircraft wheelchair scooter drone" speed="27.78" length="549.11" shape="721.80,1224.95 705.96,1330.77 694.15,1405.07 681.02,1488.67 661.22,1635.70 657.41,1664.12 647.49,1730.84 646.44,1736.56"/>
        <lane id="road_1_2_1_1" index="1" disallow="tram rail_urban rail rail_electric rail_fast ship container cable_car subway aircraft wheelchair scooter drone" speed="27.78" length="549.11" shape="718.64,1224.48 702.80,1330.28 690.99,1404.57 677.85,1488.21 658.05,1635.27 654.24,1663.67 644.33,1730.32 643.28,1736.06"/>
        <lane id="road_1_2_1_2" index="2" disallow="tram rail_urban rail rail_electric rail_fast ship container cable_car subway aircraft wheelchair scooter drone" speed="27.78" length="549.11" shape="715.47,1224.01 699.64,1329.79 687.83,1404.07 674.68,1487.75 654.88,1634.84 651.07,1663.22 641.17,1729.80 640.12,1735.56"/>
    </edge>
    <edge id="road_1_2_2" from="intersection_1_2" to="intersection_0_2" priority="11" type="highway.secondary" spreadType="center" shape="709.38,1213.86 554.21,1203.80 396.24,1193.55 64.73,1175.07">
        <lane id="road_1_2_2_0" index="0" disallow="tram rail_urban rail rail_electric rail_fast ship container cable_car subway aircraft wheelchair scooter drone" speed="27.78" length="658.87" shape="701.03,1216.53 554.00,1206.99 396.05,1196.74 65.41,1178.31"/>
        <lane id="road_1_2_2_1" index="1" disallow="tram rail_urban rail rail_electric rail_fast ship container cable_car subway aircraft wheelchair scooter drone" speed="27.78" length="658.87" shape="701.23,1213.33 554.21,1203.80 396.24,1193.55 65.59,1175.12"/>
        <lane id="road_1_2_2_2" index="2" disallow="tram rail_urban rail rail_electric rail_fast ship container cable_car subway aircraft wheelchair scooter drone" speed="27.78" length="658.87" shape="701.44,1210.14 554.42,1200.61 396.43,1190.36 65.76,1171.92"/>
    </edge>
    <edge id="road_1_2_3" from="intersection_1_2" to="intersection_1_1" priority="12" type="highway.primary" spreadType="center" shape="710.96,1201.64 726.39,1078.40 748.00,905.85 798.92,566.41">
        <lane id="road_1_2_3_0" index="0" disallow="tram rail_urban rail rail_electric rail_fast ship container cable_car subway aircraft wheelchair scooter drone" speed="27.78" length="648.90" shape="709.07,1190.94 723.21,1078.00 744.83,905.41 793.53,580.78"/>
        <lane id="road_1_2_3_1" index="1" disallow="tram rail_urban rail rail_electric rail_fast ship container cable_car subway aircraft wheelchair scooter drone" speed="27.78" length="648.90" shape="712.25,1191.34 726.39,1078.40 748.00,905.85 796.70,581.21"/>
        <lane id="road_1_2_3_2" index="2" disallow="tram rail_urban rail rail_electric rail_fast ship container cable_car subway aircraft wheelchair scooter drone" speed="27.78" length="648.90" shape="715.42,1191.74 729.57,1078.80 751.17,906.29 799.87,581.64"/>
    </edge>
    <edge id="road_1_3_0" from="intersection_1_3" to="intersection_2_3" priority="12" type="highway.primary" spreadType="center" shape="641.57,1745.42 890.39,1750.68 916.61,1751.24 1088.26,1754.88 1193.93,1756.44 1222.40,1759.68 1322.42,1762.00 1440.07,1764.73 1478.46,1766.05 1513.63,1769.45">
        <lane id="road_1_3_0_0" index="0" disallow="tram rail_urban rail rail_electric rail_fast ship container cable_car subway aircraft wheelchair scooter drone" speed="27.78" length="878.46" shape="651.26,1742.42 890.46,1747.48 916.68,1748.04 1088.32,1751.68 1194.14,1753.24 1222.62,1756.48 1322.49,1758.80 1440.16,1761.53 1478.67,1762.86 1497.42,1764.67"/>
        <lane id="road_1_3_0_1" index="1" disallow="tram rail_urban rail rail_electric rail_fast ship container cable_car subway aircraft wheelchair scooter drone" speed="27.78" length="878.46" shape="651.19,1745.62 890.39,1750.68 916.61,1751.24 1088.26,1754.88 1193.93,1756.44 1222.40,1759.68 1322.42,1762.00 1440.07,1764.73 1478.46,1766.05 1497.24,1767.86"/>
        <lane id="road_1_3_0_2" index="2" disallow="tram rail_urban rail rail_electric rail_fast ship container cable_car subway aircraft wheelchair scooter drone" speed="27.78" length="878.46" shape="651.11,1748.82 890.32,1753.88 916.54,1754.44 1088.20,1758.08 1193.72,1759.64 1222.18,1762.88 1322.35,1765.20 1439.98,1767.93 1478.25,1769.24 1497.06,1771.06"/>
    </edge>
    <edge id="road_1_3_1" from="intersection_1_3" to="intersection_1_4" priority="12" type="highway.primary" spreadType="center" shape="641.27,1750.51 590.56,2136.40 584.51,2182.80 581.92,2212.35 581.56,2255.18 585.46,2348.27 587.40,2394.47 589.62,2447.48 593.54,2531.28 598.89,2670.38 599.32,2678.33">
        <lane id="road_1_3_1_0" index="0" disallow="tram rail_urban rail rail_electric rail_fast ship container cable_car subway aircraft wheelchair scooter drone" speed="27.78" length="947.37" shape="642.44,1766.22 593.73,2136.82 587.69,2183.15 585.12,2212.50 584.76,2255.13 588.66,2348.14 590.60,2394.34 592.82,2447.34 596.74,2531.14 602.05,2669.20"/>
        <lane id="road_1_3_1_1" index="1" disallow="tram rail_urban rail rail_electric rail_fast ship container cable_car subway aircraft wheelchair scooter drone" speed="27.78" length="947.37" shape="639.26,1765.80 590.56,2136.40 584.51,2182.80 581.92,2212.35 581.56,2255.18 585.46,2348.27 587.40,2394.47 589.62,2447.48 593.54,2531.28 598.85,2669.36"/>
        <lane id="road_1_3_1_2" index="2" disallow="tram rail_urban rail rail_electric rail_fast ship container cable_car subway aircraft wheelchair scooter drone" speed="27.78" length="947.37" shape="636.09,1765.39 587.39,2135.98 581.33,2182.45 578.72,2212.20 578.36,2255.23 582.26,2348.40 584.20,2394.60 586.42,2447.62 590.34,2531.42 595.65,2669.53"/>
    </edge>
    <edge id="road_1_3_2" from="intersection_1_3" to="intersection_0_3" priority="12" type="highway.primary" spreadType="center" shape="631.45,1754.68 604.38,1756.72 275.14,1791.34 211.28,1797.51 58.67,1812.28 36.36,1814.58">
        <lane id="road_1_3_2_0" index="0" disallow="tram rail_urban rail rail_electric rail_fast ship container cable_car subway aircraft wheelchair scooter drone" speed="27.78" length="610.05" shape="621.30,1758.65 604.67,1759.91 275.46,1794.52 211.59,1800.70 58.99,1815.46 36.93,1817.74"/>
        <lane id="road_1_3_2_1" index="1" disallow="tram rail_urban rail rail_electric rail_fast ship container cable_car subway aircraft wheelchair scooter drone" speed="27.78" length="610.05" shape="621.06,1755.46 604.38,1756.72 275.14,1791.34 211.28,1797.51 58.67,1812.28 36.61,1814.55"/>
        <lane id="road_1_3_2_2" index="2" disallow="tram rail_urban rail rail_electric rail_fast ship container cable_car subway aircraft wheelchair scooter drone" speed="27.78" length="610.05" shape="620.82,1752.27 604.09,1753.53 274.82,1788.16 210.97,1794.32 58.35,1809.10 36.28,1811.37"/>
    </edge>
    <edge id="road_1_3_3" from="intersection_1_3" to="intersection_1_2" priority="12" type="highway.primary" spreadType="center" shape="632.50,1745.37 635.00,1729.50 645.10,1660.80 651.00,1617.98 668.70,1489.96 681.17,1402.03 711.50,1207.28">
        <lane id="road_1_3_3_0" index="0" disallow="tram rail_urban rail rail_electric rail_fast ship container cable_car subway aircraft wheelchair scooter drone" speed="27.78" length="549.09" shape="631.03,1734.13 631.84,1729.02 641.93,1660.35 647.83,1617.54 665.53,1489.52 678.00,1401.56 705.88,1222.57"/>
        <lane id="road_1_3_3_1" index="1" disallow="tram rail_urban rail rail_electric rail_fast ship container cable_car subway aircraft wheelchair scooter drone" speed="27.78" length="549.09" shape="634.19,1734.62 635.00,1729.50 645.10,1660.80 651.00,1617.98 668.70,1489.96 681.17,1402.03 709.05,1223.04"/>
        <lane id="road_1_3_3_2" index="2" disallow="tram rail_urban rail rail_electric rail_fast ship container cable_car subway aircraft wheelchair scooter drone" speed="27.78" length="549.09" shape="637.35,1735.12 638.16,1729.98 648.27,1661.25 654.17,1618.42 671.87,1490.40 684.34,1402.50 712.21,1223.52"/>
    </edge>
    <edge id="road_1_4_0" from="intersection_1_4" to="intersection_2_4" priority="12" type="highway.primary" spreadType="center" shape="596.75,2679.45 636.49,2677.22 682.38,2675.15 708.00,2672.39 738.45,2668.61 765.51,2664.42 811.02,2653.05 841.17,2643.97 959.42,2596.14 994.03,2582.68 1078.20,2553.56 1117.74,2541.03 1156.71,2529.70 1193.61,2521.95 1232.93,2517.06 1307.96,2511.22 1351.23,2508.16 1413.64,2515.82">
        <lane id="road_1_4_0_0" index="0" disallow="tram rail_urban rail rail_electric rail_fast ship container cable_car subway aircraft wheelchair scooter drone" speed="27.78" length="851.37" shape="607.98,2675.61 636.33,2674.02 682.14,2671.96 707.63,2669.21 738.01,2665.44 764.88,2661.28 810.17,2649.96 840.11,2640.95 958.24,2593.17 992.93,2579.68 1077.19,2550.52 1116.81,2537.97 1155.93,2526.59 1193.08,2518.79 1232.61,2513.88 1307.72,2508.03 1351.31,2504.95 1394.23,2510.21"/>
        <lane id="road_1_4_0_1" index="1" disallow="tram rail_urban rail rail_electric rail_fast ship container cable_car subway aircraft wheelchair scooter drone" speed="27.78" length="851.37" shape="608.13,2678.81 636.49,2677.22 682.38,2675.15 708.00,2672.39 738.45,2668.61 765.51,2664.42 811.02,2653.05 841.17,2643.97 959.42,2596.14 994.03,2582.68 1078.20,2553.56 1117.74,2541.03 1156.71,2529.70 1193.61,2521.95 1232.93,2517.06 1307.96,2511.22 1351.23,2508.16 1394.46,2513.46"/>
        <lane id="road_1_4_0_2" index="2" disallow="tram rail_urban rail rail_electric rail_fast ship container cable_car subway aircraft wheelchair scooter drone" speed="27.78" length="851.37" shape="608.29,2682.01 636.65,2680.42 682.62,2678.34 708.37,2675.57 738.89,2671.78 766.14,2667.56 811.87,2656.14 842.23,2646.99 960.60,2599.11 995.13,2585.68 1079.21,2556.60 1118.67,2544.09 1157.49,2532.81 1194.14,2525.11 1233.25,2520.24 1308.20,2514.41 1351.15,2511.37 1394.70,2516.72"/>
    </edge>
    <edge id="road_1_4_1" from="intersection_1_4" to="intersection_1_5" priority="12" type="highway.primary" spreadType="center" shape="593.75,2692.45 600.38,2719.46 603.39,2840.00 603.64,2849.78 606.95,2982.00 610.47,3269.33">
        <lane id="road_1_4_1_0" index="0" disallow="tram rail_urban rail rail_electric rail_fast ship container cable_car subway aircraft wheelchair scooter drone" speed="27.78" length="584.35" shape="599.48,2702.37 603.57,2719.03 606.59,2839.92 606.84,2849.70 610.15,2981.94 613.68,3269.88"/>
        <lane id="road_1_4_1_1" index="1" disallow="tram rail_urban rail rail_electric rail_fast ship container cable_car subway aircraft wheelchair scooter drone" speed="27.78" length="584.35" shape="596.36,2703.10 600.38,2719.46 603.39,2840.00 603.64,2849.78 606.95,2982.00 610.48,3269.91"/>
        <lane id="road_1_4_1_2" index="2" disallow="tram rail_urban rail rail_electric rail_fast ship container cable_car subway aircraft wheelchair scooter drone" speed="27.78" length="584.35" shape="593.25,2703.83 597.19,2719.89 600.19,2840.08 600.44,2849.86 603.75,2982.06 607.28,3269.95"/>
    </edge>
    <edge id="road_1_4_2" from="intersection_1_4" to="intersection_0_4" priority="12" type="highway.primary" spreadType="center" shape="594.01,2695.64 436.92,2705.17 383.44,2706.22 313.58,2708.04 233.87,2704.05 180.07,2705.61 142.11,2707.71 108.94,2710.22 81.79,2706.37">
        <lane id="road_1_4_2_0" index="0" disallow="tram rail_urban rail rail_electric rail_fast ship container cable_car subway aircraft wheelchair scooter drone" speed="27.78" length="520.44" shape="573.24,2700.11 437.05,2708.37 383.51,2709.42 313.54,2711.24 233.84,2707.25 180.20,2708.81 142.32,2710.90 108.83,2713.44 79.35,2709.26"/>
        <lane id="road_1_4_2_1" index="1" disallow="tram rail_urban rail rail_electric rail_fast ship container cable_car subway aircraft wheelchair scooter drone" speed="27.78" length="520.44" shape="573.06,2696.91 436.92,2705.17 383.44,2706.22 313.58,2708.04 233.87,2704.05 180.07,2705.61 142.11,2707.71 108.94,2710.22 79.80,2706.09"/>
        <lane id="road_1_4_2_2" index="2" disallow="tram rail_urban rail rail_electric rail_fast ship container cable_car subway aircraft wheelchair scooter drone" speed="27.78" length="520.44" shape="572.88,2693.72 436.79,2701.97 383.37,2703.02 313.62,2704.84 233.90,2700.85 179.94,2702.41 141.90,2704.52 109.05,2707.00 80.25,2702.92"/>
    </edge>
    <edge id="road_1_4_3" from="intersection_1_4" to="intersection_1_3" priority="12" type="highway.primary" spreadType="center" shape="584.64,2678.45 580.96,2606.90 580.62,2536.02 578.70,2474.87 575.49,2394.97 573.90,2358.05 569.03,2246.68 568.69,2238.86 570.96,2183.24 589.10,2053.37 602.11,1960.18 631.77,1749.18">
        <lane id="road_1_4_3_0" index="0" disallow="tram rail_urban rail rail_electric rail_fast ship container cable_car subway aircraft wheelchair scooter drone" speed="27.78" length="950.48" shape="581.02,2670.28 577.76,2606.99 577.42,2536.08 575.50,2474.98 572.29,2395.10 570.70,2358.19 565.83,2246.82 565.49,2238.86 567.77,2182.95 585.93,2052.93 598.94,1959.74 626.44,1764.12"/>
        <lane id="road_1_4_3_1" index="1" disallow="tram rail_urban rail rail_electric rail_fast ship container cable_car subway aircraft wheelchair scooter drone" speed="27.78" length="950.48" shape="584.21,2670.11 580.96,2606.90 580.62,2536.02 578.70,2474.87 575.49,2394.97 573.90,2358.05 569.03,2246.68 568.69,2238.86 570.96,2183.24 589.10,2053.37 602.11,1960.18 629.61,1764.54"/>
        <lane id="road_1_4_3_2" index="2" disallow="tram rail_urban rail rail_electric rail_fast ship container cable_car subway aircraft wheelchair scooter drone" speed="27.78" length="950.48" shape="587.41,2669.95 584.16,2606.81 583.82,2535.96 581.90,2474.76 578.69,2394.84 577.10,2357.91 572.23,2246.54 571.89,2238.86 574.15,2183.53 592.27,2053.81 605.28,1960.62 632.78,1764.95"/>
    </edge>
    <edge id="road_1_5_3" from="intersection_1_5" to="intersection_1_4" priority="12" type="highway.primary" spreadType="center" shape="598.52,3270.66 598.45,3264.52 598.31,3250.27 597.35,3153.79 597.09,3126.74 590.69,3013.97 589.34,2990.06 585.84,2968.46 585.30,2928.37 582.54,2720.24 582.18,2704.10">
        <lane id="road_1_5_3_0" index="0" disallow="tram rail_urban rail rail_electric rail_fast ship container cable_car subway aircraft wheelchair scooter drone" speed="27.78" length="588.27" shape="595.31,3270.09 595.25,3264.55 595.11,3250.30 594.15,3153.82 593.89,3126.85 587.50,3014.15 586.15,2990.41 582.64,2968.74 582.10,2928.41 579.34,2720.30 579.05,2707.15"/>
        <lane id="road_1_5_3_1" index="1" disallow="tram rail_urban rail rail_electric rail_fast ship container cable_car subway aircraft wheelchair scooter drone" speed="27.78" length="588.27" shape="598.51,3270.06 598.45,3264.52 598.31,3250.27 597.35,3153.79 597.09,3126.74 590.69,3013.97 589.34,2990.06 585.84,2968.46 585.30,2928.37 582.54,2720.24 582.23,2706.40"/>
        <lane id="road_1_5_3_2" index="2" disallow="tram rail_urban rail rail_electric rail_fast ship container cable_car subway aircraft wheelchair scooter drone" speed="27.78" length="588.27" shape="601.71,3270.02 601.65,3264.49 601.51,3250.24 600.55,3153.76 600.29,3126.63 593.88,3013.79 592.53,2989.71 589.04,2968.18 588.50,2928.33 585.74,2720.18 585.42,2705.66"/>
    </edge>
    <edge id="road_2_0_1" from="intersection_2_0" to="intersection_2_1" priority="11" type="highway.secondary" spreadType="center" shape="1928.28,27.04 1877.46,231.32 1873.95,242.83 1850.90,336.21 1838.38,386.93 1820.12,468.32 1792.51,580.33">
        <lane id="road_2_0_1_0" index="0" disallow="tram rail_urban rail rail_electric rail_fast ship container cable_car subway aircraft wheelchair scooter drone" speed="27.78" length="577.64" shape="1931.55,27.15 1880.55,232.17 1877.04,243.68 1854.01,336.98 1841.49,387.66 1823.24,469.05 1799.96,563.49"/>
        <lane id="road_2_0_1_1" index="1" disallow="tram rail_urban rail rail_electric rail_fast ship container cable_car subway aircraft wheelchair scooter drone" speed="27.78" length="577.64" shape="1928.45,26.38 1877.46,231.32 1873.95,242.83 1850.90,336.21 1838.38,386.93 1820.12,468.32 1796.84,562.77"/>
        <lane id="road_2_0_1_2" index="2" disallow="tram rail_urban rail rail_electric rail_fast ship container cable_car subway aircraft wheelchair scooter drone" speed="27.78" length="577.64" shape="1925.34,25.60 1874.37,230.47 1870.86,241.98 1847.79,335.44 1835.27,386.20 1817.00,467.59 1793.72,562.06"/>
    </edge>